@<TRIPOS>MOLECULE
ucer3
  132  131    1    0    0
SMALL
NO_CHARGES
****
Energy = 0

@<TRIPOS>ATOM
      1  N1        -0.6295   -0.1913   -1.3879    NH1    1  ucer3        0.000000
      2  H2        -1.6297   -0.0601   -1.4121    HN1    1  ucer3        0.000000
      3  C3         0.0482   -0.3477   -2.6000    CLN    1  ucer3        0.000000
      4  O4         1.2585   -0.5369   -2.6615    OBL    1  ucer3        0.000000
      5  C5        -0.7482   -0.1102   -3.9430    CTL2    1  ucer3        0.000000
      6  H6        -0.9217    0.9795   -4.0449    HAL2    1  ucer3        0.000000
      7  H7        -1.7420   -0.5924   -3.8521    HAL2    1  ucer3        0.000000
      8  C8        -0.0794   -0.6005   -5.3392    CTL2    1  ucer3        0.000000
      9  H9         0.9960   -0.3103   -5.3196    HAL2    1  ucer3        0.000000
     10  H10       -0.1065   -1.7133   -5.3519    HAL2    1  ucer3        0.000000
     11  C11       -0.6677   -0.0607   -6.7399    CTL2    1  ucer3        0.000000
     12  H12       -1.7728   -0.1844   -6.7185    HAL2    1  ucer3        0.000000
     13  H13       -0.4625    1.0324   -6.7697    HAL2    1  ucer3        0.000000
     14  C14       -0.1540   -0.6870   -8.1345    CTL2    1  ucer3        0.000000
     15  H15        0.9560   -0.7444   -8.0918    HAL2    1  ucer3        0.000000
     16  H16       -0.5306   -1.7327   -8.1773    HAL2    1  ucer3        0.000000
     17  C17       -0.5285    0.0308   -9.5282    CTL2    1  ucer3        0.000000
     18  H18       -1.6175    0.2553   -9.5147    HAL2    1  ucer3        0.000000
     19  H19        0.0046    1.0070   -9.5415    HAL2    1  ucer3        0.000000
     20  C20       -0.2249   -0.7096  -10.9266    CTL2    1  ucer3        0.000000
     21  H21        0.8217   -1.0851  -10.8948    HAL2    1  ucer3        0.000000
     22  H22       -0.8885   -1.6013  -10.9745    HAL2    1  ucer3        0.000000
     23  C23       -0.3865    0.0934  -12.3133    CTL2    1  ucer3        0.000000
     24  H24       -1.3758    0.6019  -12.3010    HAL2    1  ucer3        0.000000
     25  H25        0.3895    0.8907  -12.3217    HAL2    1  ucer3        0.000000
     26  C26       -0.2867   -0.6935  -13.7126    CTL2    1  ucer3        0.000000
     27  H27        0.6345   -1.3163  -13.6917    HAL2    1  ucer3        0.000000
     28  H28       -1.1514   -1.3918  -13.7605    HAL2    1  ucer3        0.000000
     29  C29       -0.2562    0.1337  -15.0880    CTL2    1  ucer3        0.000000
     30  H30       -1.1048    0.8523  -15.0783    HAL2    1  ucer3        0.000000
     31  H31        0.6802    0.7339  -15.0949    HAL2    1  ucer3        0.000000
     32  C32       -0.3329   -0.6542  -16.4809    CTL2    1  ucer3        0.000000
     33  H33        0.4410   -1.4529  -16.4719    HAL2    1  ucer3        0.000000
     34  H34       -1.3232   -1.1587  -16.5268    HAL2    1  ucer3        0.000000
     35  C35       -0.1443    0.1572  -17.8468    CTL2    1  ucer3        0.000000
     36  H36       -0.8444    1.0217  -17.8384    HAL2    1  ucer3        0.000000
     37  H37        0.8881    0.5725  -17.8526    HAL2    1  ucer3        0.000000
     38  C38       -0.3634   -0.6064  -19.2320    CTL2    1  ucer3        0.000000
     39  H39        0.2678   -1.5225  -19.2263    HAL2    1  ucer3        0.000000
     40  H40       -1.4245   -0.9394  -19.2683    HAL2    1  ucer3        0.000000
     41  C41       -0.0528    0.1704  -20.5883    CTL2    1  ucer3        0.000000
     42  H42       -0.6192    1.1275  -20.5757    HAL2    1  ucer3        0.000000
     43  H43        1.0293    0.4287  -20.5878    HAL2    1  ucer3        0.000000
     44  C44       -0.3798   -0.5557  -21.9653    CTL2    1  ucer3        0.000000
     45  H45        0.1274   -1.5455  -21.9673    HAL2    1  ucer3        0.000000
     46  H46       -1.4750   -0.7480  -21.9973    HAL2    1  ucer3        0.000000
     47  C47        0.0176    0.1770  -23.3172    CTL2    1  ucer3        0.000000
     48  H48       -0.4376    1.1921  -23.3174    HAL2    1  ucer3        0.000000
     49  H49        1.1222    0.3108  -23.3284    HAL2    1  ucer3        0.000000
     50  C50       -0.3940   -0.5216  -24.6776    CTL2    1  ucer3        0.000000
     51  H51        0.0164   -1.5558  -24.6795    HAL2    1  ucer3        0.000000
     52  H52       -1.5035   -0.6064  -24.6987    HAL2    1  ucer3        0.000000
     53  C53        0.0599    0.1670  -26.0248    CTL2    1  ucer3        0.000000
     54  H54       -0.3103    1.2161  -26.0372    HAL2    1  ucer3        0.000000
     55  H55        1.1716    0.2083  -26.0456    HAL2    1  ucer3        0.000000
     56  C56       -0.4154   -0.5123  -27.3606    CTL2    1  ucer3        0.000000
     57  H57       -1.5281   -0.5187  -27.3837    HAL2    1  ucer3        0.000000
     58  H58       -0.0772   -1.5724  -27.3702    HAL2    1  ucer3        0.000000
     59  C59        0.0775    0.1436  -28.6951    CTL2    1  ucer3        0.000000
     60  H60        1.1900    0.1189  -28.7227    HAL2    1  ucer3        0.000000
     61  H61       -0.2370    1.2110  -28.7167    HAL2    1  ucer3        0.000000
     62  C62       -0.4470   -0.5292  -30.0006    CTL2    1  ucer3        0.000000
     63  H63       -1.5590   -0.4821  -29.9963    HAL2    1  ucer3        0.000000
     64  H64       -0.1534   -1.6026  -29.9871    HAL2    1  ucer3        0.000000
     65  C65        0.0593    0.0902  -31.3368    CTL2    1  ucer3        0.000000
     66  H66        1.1690    0.0213  -31.3733    HAL2    1  ucer3        0.000000
     67  H67       -0.2239    1.1654  -31.3742    HAL2    1  ucer3        0.000000
     68  C68       -0.4959   -0.5840  -32.6121    CTL2    1  ucer3        0.000000
     69  H69       -1.6060   -0.5061  -32.5920    HAL2    1  ucer3        0.000000
     70  H70       -0.2234   -1.6627  -32.5841    HAL2    1  ucer3        0.000000
     71  C71        0.0000   -0.0000  -33.9500    CTL3    1  ucer3        0.000000
     72  H72       -0.2731    1.0743  -34.0403    HAL3    1  ucer3        0.000000
     73  H73       -0.4535   -0.5404  -34.8118    HAL3    1  ucer3        0.000000
     74  H74        1.1052   -0.0883  -34.0372    HAL3    1  ucer3        0.000000
     75  C75        0.0000    0.0000    0.0000    CTL1    1  ucer3        0.000000
     76  H76        0.9809   -0.5302   -0.0120    HAL1    1  ucer3        0.000000
     77  C77        0.2875    1.5349    0.1771    CTL2    1  ucer3        0.000000
     78  H78        0.4426    2.0161   -0.8158    HAL2    1  ucer3        0.000000
     79  H79       -0.5771    2.0439    0.6597    HAL2    1  ucer3        0.000000
     80  O80        1.4602    1.7429    0.9639    OHL     1  ucer3        0.000000
     81  H81        1.6233    2.6911    0.9950    HOL     1  ucer3        0.000000
     82  C82       -0.8825   -0.6956    1.1668    CTL1    1  ucer3        0.000000
     83  H83       -0.5276   -1.7436    1.2928    HAL1    1  ucer3        0.000000
     84  O84       -2.2721   -0.7129    0.8463    OHL     1  ucer3        0.000000
     85  H85       -2.3906   -1.4563    0.2480    HOL     1  ucer3        0.000000
     86  C86       -0.7345   -0.0149    2.5748    CTL1    1  ucer3        0.000000
     87  H87       -0.6853    0.3462    3.5060    HAL1    1  ucer3        0.000000  
     88  O88       -0.9965    1.0525    2.6041    OHL     1  ucer3        0.000000
     89  H89       -0.5741    1.5130    1.8234    HOL     1  ucer3        0.000000
     90  C90       -0.4075   -0.6047    3.7770    CTL2    1  ucer3        0.000000
     91  H91       -0.2155   -1.6883    3.8285    HAL2    1  ucer3        0.000000
     92  H92       -0.2503   -0.8757    4.7267    HAL2    1  ucer3        0.000000
     93  C93       -0.3609    0.0675    5.1673    CTL2    1  ucer3        0.000000
     94  H94        0.5899    0.6392    5.2508    HAL2    1  ucer3        0.000000
     95  H95       -1.1791    0.8193    5.2307    HAL2    1  ucer3        0.000000
     96  C96       -0.4782   -0.7682    6.5171    CTL2    1  ucer3        0.000000
     97  H97       -1.4425   -1.3223    6.5011    HAL2    1  ucer3        0.000000
     98  H98        0.3374   -1.5244    6.5235    HAL2    1  ucer3        0.000000
     99  C99       -0.4064    0.0402    7.8858    CTL2    1  ucer3        0.000000
    100  H100       0.5265    0.6461    7.8787    HAL2    1  ucer3        0.000000
    101  H101      -1.2583    0.7559    7.8985    HAL2    1  ucer3        0.000000
    102  C102      -0.4304   -0.7758    9.2499    CTL2    1  ucer3        0.000000
    103 H103       -1.3388   -1.4181    9.2573    HAL2    1  ucer3        0.000000
    104 H104        0.4539   -1.4508    9.2640    HAL2    1  ucer3        0.000000
    105 C105       -0.4244    0.0438   10.6081    CTL2    1  ucer3        0.000000
    106 H106        0.4534    0.7276   10.5984    HAL2    1  ucer3        0.000000
    107 H107       -1.3376    0.6789   10.6191    HAL2    1  ucer3        0.000000
    108 C108       -0.3881   -0.7712   11.9667    CTL2    1  ucer3        0.000000
    109 H109       -1.2458   -1.4793   11.9781    HAL2    1  ucer3        0.000000
    110 H110        0.5423   -1.3802   12.0030    HAL2    1  ucer3        0.000000
    111 C111       -0.4389    0.0499   13.3089    CTL2    1  ucer3        0.000000
    112 H112        0.4048    0.7742   13.3175    HAL2    1  ucer3        0.000000
    113 H113       -1.3842    0.6358   13.3408    HAL2    1  ucer3        0.000000
    114 C114       -0.3474   -0.7838   14.6351    CTL2    1  ucer3        0.000000
    115 H115       -1.1685   -1.5351   14.6455    HAL2    1  ucer3        0.000000
    116 H116        0.6158   -1.3417   14.6408    HAL2    1  ucer3        0.000000
    117 C117       -0.4328    0.0250   15.9727    CTL2    1  ucer3        0.000000
    118 H118        0.3750    0.7915   15.9857    HAL2    1  ucer3        0.000000
    119 H119       -1.4072    0.5632   16.0020    HAL2    1  ucer3        0.000000
    120 C120       -0.3088   -0.8275   17.2721    CTL2    1  ucer3        0.000000
    121 H121       -1.1017   -1.6074   17.2549    HAL2    1  ucer3        0.000000
    122 H122        0.6706   -1.3550   17.2497    HAL2    1  ucer3        0.000000
    123 C123       -0.4198   -0.0392   18.6130    CTL2    1  ucer3        0.000000
    124 H124        0.3673    0.7454   18.6567    HAL2    1  ucer3        0.000000
    125 H125       -1.4063    0.4709   18.6714    HAL2    1  ucer3        0.000000
    126 C126       -0.2722   -0.9084   19.8835    CTL2    1  ucer3        0.000000
    127 H127       -1.0601   -1.6953   19.8470    HAL2    1  ucer3        0.000000
    128 H128        0.7320   -1.3893   19.8449    HAL2    1  ucer3        0.000000
    129 C129       -0.4029   -0.1332   21.2980    CTL3    1  ucer3        0.000000
    130 H130       -0.2851   -0.7823   22.2147    HAL3    1  ucer3        0.000000
    131 H131        0.3683    0.6763   21.4416    HAL3    1  ucer3        0.000000
    132 H132       -1.4029    0.3644   21.4490    HAL3    1  ucer3        0.000000
@<TRIPOS>BOND
        1       26       27 1
        2       86       87 1
        3       35       37 1
        4       96       98 1
        5       62       65 1
        6      123      126 1
        7       99      102 1
        8       38       41 1
        9       53       54 1
       10      114      115 1
       11       56       59 1
       12      117      120 1
       13       96       99 1
       14       35       38 1
       15       71       73 1
       16       82       86 1
       17       17       14 1
       18       90       91 1
       19        3        5 1
       20        3        4 1
       21      108      109 1
       22      120      121 1
       23       59       60 1
       24      102      105 1
       25       41       44 1
       26       47       48 1
       27       75       76 1
       28       29       31 1
       29       12       11 1
       30       53       55 1
       31      114      116 1
       32       90       92 1
       33       80       81 1
       34       11        8 1
       35       93       95 1
       36       68       70 1
       37      108      110 1
       38       47       49 1
       39       20       22 1
       40       99      101 1
       41       38       40 1
       42      114      117 1
       43       53       56 1
       44        3        1 1
       45      117      119 1
       46       26       29 1
       47       56       58 1
       48        8        5 1
       49       84       85 1
       50       75       82 1
       51       20       23 1
       52       75       77 1
       53       93       96 1
       54       68       71 1
       55       62       64 1
       56      123      125 1
       57       10        8 1
       58       29       32 1
       59       50       51 1
       60      111      112 1
       61      108      111 1
       62       47       50 1
       63      126      127 1
       64       65       66 1
       65       29       30 1
       66       17       20 1
       67      105      106 1
       68       44       45 1
       69       59       61 1
       70      120      122 1
       71      126      128 1
       72       65       67 1
       73       77       78 1
       74       50       53 1
       75      111      114 1
       76        1        2 1
       77       65       68 1
       78      126      129 1
       79       77       79 1
       80       17       18 1
       81       62       63 1
       82      123      124 1
       83      102      103 1
       84       41       42 1
       85       99      100 1
       86       38       39 1
       87       86       90 1
       88        6        5 1
       89       26       28 1
       90        7        5 1
       91       23       24 1
       92       13       11 1
       93       59       62 1
       94      120      123 1
       95       32       33 1
       96       86       88 1
       97       93       94 1
       98      129      130 1
       99       68       69 1
      100       82       83 1
      101      102      104 1
      102       41       43 1
      103       15       14 1
      104        1       75 1
      105       50       52 1
      106      111      113 1
      107       77       80 1
      108       71       74 1
      109       88       89 1
      110       14       11 1
      111      117      118 1
      112       56       57 1
      113      129      131 1
      114       35       36 1
      115       71       72 1
      116       96       97 1
      117       17       19 1
      118       20       21 1
      119       82       84 1
      120       16       14 1
      121       23       26 1
      122       90       93 1
      123      129      132 1
      124       23       25 1
      125      105      108 1
      126       44       47 1
      127        9        8 1
      128      105      107 1
      129       44       46 1
      130       32       35 1
      131       34       32 1
@<TRIPOS>SUBSTRUCTURE

    1 ucer3           1 RESIDUE    0 **** ROOT      0
#generated by VMD
