@<TRIPOS>MOLECULE
ucer2
  114  113    1    0    0
SMALL
NO_CHARGES
****
Energy = 0

@<TRIPOS>ATOM
      1  N1        -0.7062   -0.3012   -1.5870    N    1  ucer2        0.000000
      2  H2        -1.7064   -0.1700   -1.6112    H    1  ucer2        0.000000
      3  C3        -0.0285   -0.4576   -2.7991    C    1  ucer2        0.000000
      4  O4         1.1818   -0.6468   -2.8606    O    1  ucer2        0.000000
      5  C5        -0.8249   -0.2201   -4.1421    C    1  ucer2        0.000000
      6  H6        -0.9984    0.8696   -4.2440    H    1  ucer2        0.000000
      7  H7        -1.8187   -0.7023   -4.0512    H    1  ucer2        0.000000
      8  C8        -0.1561   -0.7104   -5.5383    C    1  ucer2        0.000000
      9  H9         0.9193   -0.4202   -5.5187    H    1  ucer2        0.000000
     10  H10       -0.1832   -1.8232   -5.5510    H    1  ucer2        0.000000
     11  C11       -0.7444   -0.1706   -6.9390    C    1  ucer2        0.000000
     12  H12       -1.8495   -0.2943   -6.9176    H    1  ucer2        0.000000
     13  H13       -0.5392    0.9225   -6.9688    H    1  ucer2        0.000000
     14  C14       -0.2307   -0.7969   -8.3336    C    1  ucer2        0.000000
     15  H15        0.8793   -0.8543   -8.2909    H    1  ucer2        0.000000
     16  H16       -0.6073   -1.8426   -8.3764    H    1  ucer2        0.000000
     17  C17       -0.6052   -0.0791   -9.7273    C    1  ucer2        0.000000
     18  H18       -1.6942    0.1454   -9.7138    H    1  ucer2        0.000000
     19  H19       -0.0721    0.8971   -9.7406    H    1  ucer2        0.000000
     20  C20       -0.3016   -0.8195  -11.1257    C    1  ucer2        0.000000
     21  H21        0.7450   -1.1950  -11.0939    H    1  ucer2        0.000000
     22  H22       -0.9652   -1.7112  -11.1736    H    1  ucer2        0.000000
     23  C23       -0.4632   -0.0165  -12.5124    C    1  ucer2        0.000000
     24  H24       -1.4525    0.4920  -12.5001    H    1  ucer2        0.000000
     25  H25        0.3128    0.7808  -12.5208    H    1  ucer2        0.000000
     26  C26       -0.3634   -0.8034  -13.9117    C    1  ucer2        0.000000
     27  H27        0.5578   -1.4262  -13.8908    H    1  ucer2        0.000000
     28  H28       -1.2281   -1.5017  -13.9596    H    1  ucer2        0.000000
     29  C29       -0.3329    0.0238  -15.2871    C    1  ucer2        0.000000
     30  H30       -1.1815    0.7424  -15.2774    H    1  ucer2        0.000000
     31  H31        0.6035    0.6240  -15.2940    H    1  ucer2        0.000000
     32  C32       -0.4096   -0.7641  -16.6800    C    1  ucer2        0.000000
     33  H33        0.3643   -1.5628  -16.6710    H    1  ucer2        0.000000
     34  H34       -1.3999   -1.2686  -16.7259    H    1  ucer2        0.000000
     35  C35       -0.2210    0.0473  -18.0459    C    1  ucer2        0.000000
     36  H36       -0.9211    0.9118  -18.0375    H    1  ucer2        0.000000
     37  H37        0.8114    0.4626  -18.0517    H    1  ucer2        0.000000
     38  C38       -0.4401   -0.7163  -19.4311    C    1  ucer2        0.000000
     39  H39        0.1911   -1.6324  -19.4254    H    1  ucer2        0.000000
     40  H40       -1.5012   -1.0493  -19.4674    H    1  ucer2        0.000000
     41  C41       -0.1295    0.0605  -20.7874    C    1  ucer2        0.000000
     42  H42       -0.6959    1.0176  -20.7748    H    1  ucer2        0.000000
     43  H43        0.9526    0.3188  -20.7869    H    1  ucer2        0.000000
     44  C44       -0.4565   -0.6656  -22.1644    C    1  ucer2        0.000000
     45  H45        0.0507   -1.6554  -22.1664    H    1  ucer2        0.000000
     46  H46       -1.5517   -0.8579  -22.1964    H    1  ucer2        0.000000
     47  C47       -0.0591    0.0671  -23.5163    C    1  ucer2        0.000000
     48  H48       -0.5143    1.0822  -23.5165    H    1  ucer2        0.000000
     49  H49        1.0455    0.2009  -23.5275    H    1  ucer2        0.000000
     50  C50       -0.4707   -0.6315  -24.8767    C    1  ucer2        0.000000
     51  H51       -0.0603   -1.6657  -24.8786    H    1  ucer2        0.000000
     52  H52       -1.5802   -0.7163  -24.8978    H    1  ucer2        0.000000
     53  C53       -0.0168    0.0571  -26.2239    C    1  ucer2        0.000000
     54  H54       -0.3928    1.1226  -26.2365    H    1  ucer2        0.000000
     55  H55        1.1122    0.0990  -26.2450    H    1  ucer2        0.000000
     56  H3        -0.3502   -0.4195  -27.1610    H    1  ucer2        0.000000
     57  C75       -0.0767   -0.1099   -0.1991    C    1  ucer2        0.000000
     58  H76        0.9042   -0.6401   -0.2111    H    1  ucer2        0.000000
     59  C77        0.2108    1.4250   -0.0220    C    1  ucer2        0.000000
     60  H78        0.3659    1.9062   -1.0149    H    1  ucer2        0.000000
     61  H79       -0.6538    1.9340    0.4606    H    1  ucer2        0.000000
     62  O80        1.3835    1.6330    0.7648    O    1  ucer2        0.000000
     63  H81        1.5466    2.5812    0.7959    H    1  ucer2        0.000000
     64  C82       -0.9592   -0.8055    0.9677    C    1  ucer2        0.000000
     65  H83       -0.6043   -1.8535    1.0937    H    1  ucer2        0.000000
     66  O84       -2.3488   -0.8228    0.6472    O    1  ucer2        0.000000
     67  H85       -2.4673   -1.5662    0.0489    H    1  ucer2        0.000000
     68  C86       -0.8112   -0.1248    2.3757    C    1  ucer2        0.000000
     69  O0        -1.0732    0.9426    2.4050    O    1  ucer2        0.000000
     70  C88       -0.4842   -0.7146    3.5779    C    1  ucer2        0.000000
     71  H89       -0.2922   -1.7982    3.6294    H    1  ucer2        0.000000
     72  C90       -0.4376   -0.0424    4.9682    C    1  ucer2        0.000000
     73  H91        0.5132    0.5293    5.0517    H    1  ucer2        0.000000
     74  H92       -1.2558    0.7094    5.0316    H    1  ucer2        0.000000
     75  C93       -0.5549   -0.8781    6.3180    C    1  ucer2        0.000000
     76  H94       -1.5192   -1.4322    6.3020    H    1  ucer2        0.000000
     77  H95        0.2607   -1.6343    6.3244    H    1  ucer2        0.000000
     78  C96       -0.4831   -0.0697    7.6867    C    1  ucer2        0.000000
     79  H97        0.4498    0.5362    7.6796    H    1  ucer2        0.000000
     80  H98       -1.3350    0.6460    7.6994    H    1  ucer2        0.000000
     81  C99       -0.5071   -0.8857    9.0508    C    1  ucer2        0.000000
     82 H100       -1.4155   -1.5280    9.0582    H    1  ucer2        0.000000
     83 H101        0.3772   -1.5607    9.0649    H    1  ucer2        0.000000
     84 C102       -0.5011   -0.0661   10.4090    C    1  ucer2        0.000000
     85 H103        0.3767    0.6177   10.3993    H    1  ucer2        0.000000
     86 H104       -1.4143    0.5690   10.4200    H    1  ucer2        0.000000
     87 C105       -0.4648   -0.8811   11.7676    C    1  ucer2        0.000000
     88 H106       -1.3225   -1.5892   11.7790    H    1  ucer2        0.000000
     89 H107        0.4656   -1.4901   11.8039    H    1  ucer2        0.000000
     90 C108       -0.5156   -0.0600   13.1098    C    1  ucer2        0.000000
     91 H109        0.3281    0.6643   13.1184    H    1  ucer2        0.000000
     92 H110       -1.4609    0.5259   13.1417    H    1  ucer2        0.000000
     93 C111       -0.4241   -0.8937   14.4360    C    1  ucer2        0.000000
     94 H112       -1.2452   -1.6450   14.4464    H    1  ucer2        0.000000
     95 H113        0.5391   -1.4516   14.4417    H    1  ucer2        0.000000
     96 C114       -0.5095   -0.0849   15.7736    C    1  ucer2        0.000000
     97 H115        0.2983    0.6816   15.7866    H    1  ucer2        0.000000
     98 H116       -1.4839    0.4533   15.8029    H    1  ucer2        0.000000
     99 C117       -0.3855   -0.9374   17.0730    C    1  ucer2        0.000000
    100 H118       -1.1784   -1.7173   17.0558    H    1  ucer2        0.000000
    101 H119        0.5939   -1.4649   17.0506    H    1  ucer2        0.000000
    102 C120       -0.4965   -0.1491   18.4139    C    1  ucer2        0.000000
    103 H121        0.2906    0.6355   18.4576    H    1  ucer2        0.000000
    104 H122       -1.4830    0.3610   18.4723    H    1  ucer2        0.000000
    105 C123       -0.3489   -1.0183   19.6844    C    1  ucer2        0.000000
    106 H124       -1.1368   -1.8052   19.6479    H    1  ucer2        0.000000
    107 H125        0.6553   -1.4992   19.6458    H    1  ucer2        0.000000
    108 C126       -0.4796   -0.2431   21.0989    C    1  ucer2        0.000000
    109 H127       -0.3618   -0.8922   22.0156    H    1  ucer2        0.000000
    110 H128        0.2916    0.5664   21.2425    H    1  ucer2        0.000000
    111 H129       -1.4796    0.2545   21.2499    H    1  ucer2        0.000000
    112  H         -0.7620    0.2363    3.3070    H    1  ucer2        0.000000
    113  H0        -0.6507    1.4031    1.6243    H    1  ucer2        0.000000
    114  H1        -0.3270   -0.9856    4.5276    H    1  ucer2        0.000000
@<TRIPOS>BOND
    1     1     3  1
    2     1    57  1
    3     1     2  1
    4     3     4  2
    5     3     5  1
    6     5     8  1
    7     5     7  1
    8     5     6  1
    9     8    10  1
   10     8    11  1
   11     8     9  1
   12    11    14  1
   13    11    12  1
   14    11    13  1
   15    14    16  1
   16    14    15  1
   17    14    17  1
   18    17    19  1
   19    17    18  1
   20    17    20  1
   21    20    21  1
   22    20    23  1
   23    20    22  1
   24    23    26  1
   25    23    25  1
   26    23    24  1
   27    26    28  1
   28    26    29  1
   29    26    27  1
   30    29    30  1
   31    29    31  1
   32    29    32  1
   33    32    35  1
   34    32    33  1
   35    32    34  1
   36    35    37  1
   37    35    36  1
   38    35    38  1
   39    38    39  1
   40    38    40  1
   41    38    41  1
   42    41    43  1
   43    41    44  1
   44    41    42  1
   45    44    47  1
   46    44    45  1
   47    44    46  1
   48    47    48  1
   49    47    49  1
   50    47    50  1
   51    50    51  1
   52    50    52  1
   53    50    53  1
   54    53    55  1
   55    53    54  1
   56    53    56  1
   57    57    58  1
   58    57    64  1
   59    57    59  1
   60    59    61  1
   61    59    60  1
   62    59    62  1
   63    62    63  1
   64    64    68  1
   65    64    65  1
   66    64    66  1
   67    66    67  1
   68    68    70  1
   69    68    69  1
   70    68   112  1
   71    69   113  1
   72    70    72  1
   73    70    71  1
   74    70   114  1
   75    72    75  1
   76    72    74  1
   77    72    73  1
   78    75    77  1
   79    75    76  1
   80    75    78  1
   81    78    81  1
   82    78    79  1
   83    78    80  1
   84    81    84  1
   85    81    83  1
   86    81    82  1
   87    84    87  1
   88    84    85  1
   89    84    86  1
   90    87    88  1
   91    87    90  1
   92    87    89  1
   93    90    93  1
   94    90    91  1
   95    90    92  1
   96    93    96  1
   97    93    94  1
   98    93    95  1
   99    96    98  1
  100    96    99  1
  101    96    97  1
  102    99   101  1
  103    99   100  1
  104    99   102  1
  105   102   103  1
  106   102   104  1
  107   102   105  1
  108   105   107  1
  109   105   106  1
  110   105   108  1
  111   108   109  1
  112   108   110  1
  113   108   111  1

@<TRIPOS>SUBSTRUCTURE
1 ****        1 TEMP                        0 ****  **** 0 ROOT

#generated by VMD
