@<TRIPOS>MOLECULE
ucer3
  108  107    1    0    0
SMALL
NO_CHARGES
****
Energy = 0

@<TRIPOS>ATOM
      1  N1        -0.6295   -0.1913   -1.3879    N    1  ucer3        0.000000
      2  H2        -1.6297   -0.0601   -1.4121    H    1  ucer3        0.000000
      3  C3         0.0482   -0.3477   -2.6000    C    1  ucer3        0.000000
      4  O4         1.2585   -0.5369   -2.6615    O    1  ucer3        0.000000
      5  C5        -0.7482   -0.1102   -3.9430    C    1  ucer3        0.000000
      6  H6        -0.9217    0.9795   -4.0449    H    1  ucer3        0.000000
      7  H          0.2083    0.1578   -4.0579    H    1  ucer3        0.000000
      8  C8        -0.0794   -0.6005   -5.3392    C    1  ucer3        0.000000
      9  H9         0.9960   -0.3103   -5.3196    H    1  ucer3        0.000000
     10  H10       -0.1065   -1.7133   -5.3519    H    1  ucer3        0.000000
     11  C11       -0.6677   -0.0607   -6.7399    C    1  ucer3        0.000000
     12  H12       -1.7728   -0.1844   -6.7185    H    1  ucer3        0.000000
     13  H13       -0.4625    1.0324   -6.7697    H    1  ucer3        0.000000
     14  C14       -0.1540   -0.6870   -8.1345    C    1  ucer3        0.000000
     15  H15        0.9560   -0.7444   -8.0918    H    1  ucer3        0.000000
     16  H16       -0.5306   -1.7327   -8.1773    H    1  ucer3        0.000000
     17  C17       -0.5285    0.0308   -9.5282    C    1  ucer3        0.000000
     18  H18       -1.6175    0.2553   -9.5147    H    1  ucer3        0.000000
     19  H19        0.0046    1.0070   -9.5415    H    1  ucer3        0.000000
     20  C20       -0.2249   -0.7096  -10.9266    C    1  ucer3        0.000000
     21  H21        0.8217   -1.0851  -10.8948    H    1  ucer3        0.000000
     22  H22       -0.8885   -1.6013  -10.9745    H    1  ucer3        0.000000
     23  C23       -0.3865    0.0934  -12.3133    C    1  ucer3        0.000000
     24  H24       -1.3758    0.6019  -12.3010    H    1  ucer3        0.000000
     25  H25        0.3895    0.8907  -12.3217    H    1  ucer3        0.000000
     26  C26       -0.2867   -0.6935  -13.7126    C    1  ucer3        0.000000
     27  H27        0.6345   -1.3163  -13.6917    H    1  ucer3        0.000000
     28  H28       -1.1514   -1.3918  -13.7605    H    1  ucer3        0.000000
     29  C29       -0.2562    0.1337  -15.0880    C    1  ucer3        0.000000
     30  H30       -1.1048    0.8523  -15.0783    H    1  ucer3        0.000000
     31  H31        0.6802    0.7339  -15.0949    H    1  ucer3        0.000000
     32  C32       -0.3329   -0.6542  -16.4809    C    1  ucer3        0.000000
     33  H33        0.4410   -1.4529  -16.4719    H    1  ucer3        0.000000
     34  H34       -1.3232   -1.1587  -16.5268    H    1  ucer3        0.000000
     35  C35       -0.1443    0.1572  -17.8468    C    1  ucer3        0.000000
     36  H36       -0.8444    1.0217  -17.8384    H    1  ucer3        0.000000
     37  H37        0.8881    0.5725  -17.8526    H    1  ucer3        0.000000
     38  C38       -0.3634   -0.6064  -19.2320    C    1  ucer3        0.000000
     39  H39        0.2678   -1.5225  -19.2263    H    1  ucer3        0.000000
     40  H40       -1.4245   -0.9394  -19.2683    H    1  ucer3        0.000000
     41  C41       -0.0528    0.1704  -20.5883    C    1  ucer3        0.000000
     42  H42       -0.6192    1.1275  -20.5757    H    1  ucer3        0.000000
     43  H43        1.0293    0.4287  -20.5878    H    1  ucer3        0.000000
     44  C44       -0.3798   -0.5557  -21.9653    C    1  ucer3        0.000000
     45  H45        0.1274   -1.5455  -21.9673    H    1  ucer3        0.000000
     46  H46       -1.4750   -0.7480  -21.9973    H    1  ucer3        0.000000
     47  C47        0.0176    0.1770  -23.3172    C    1  ucer3        0.000000
     48  H48       -0.4376    1.1921  -23.3174    H    1  ucer3        0.000000
     49  H49        1.1222    0.3108  -23.3284    H    1  ucer3        0.000000
     50  H0         0.1943    0.4689  -22.3772    H    1  ucer3        0.000000
     51  C75        0.0000    0.0000    0.0000    C    1  ucer3        0.000000
     52  H76        0.9809   -0.5302   -0.0120    H    1  ucer3        0.000000
     53  C77        0.2875    1.5349    0.1771    C    1  ucer3        0.000000
     54  H78        0.4426    2.0161   -0.8158    H    1  ucer3        0.000000
     55  H79       -0.5771    2.0439    0.6597    H    1  ucer3        0.000000
     56  O80        1.4602    1.7429    0.9639    O    1  ucer3        0.000000
     57  H81        1.6233    2.6911    0.9950    H    1  ucer3        0.000000
     58  C82       -0.8825   -0.6956    1.1668    C    1  ucer3        0.000000
     59  H83       -0.5276   -1.7436    1.2928    H    1  ucer3        0.000000
     60  O84       -2.2721   -0.7129    0.8463    O    1  ucer3        0.000000
     61  H85       -2.3906   -1.4563    0.2480    H    1  ucer3        0.000000
     62  C86       -0.7345   -0.0149    2.5748    C    1  ucer3        0.000000
     63  H87       -0.9965    1.0525    2.6041    H    1  ucer3        0.000000
     64  O88       -0.4075   -0.6047    3.7770    O    1  ucer3        0.000000
     65  H89       -0.2155   -1.6883    3.8285    H    1  ucer3        0.000000
     66  C90       -0.3609    0.0675    5.1673    C    1  ucer3        0.000000
     67  H91        0.5899    0.6392    5.2508    H    1  ucer3        0.000000
     68  H92       -1.1791    0.8193    5.2307    H    1  ucer3        0.000000
     69  C93       -0.4782   -0.7682    6.5171    C    1  ucer3        0.000000
     70  H94       -1.4425   -1.3223    6.5011    H    1  ucer3        0.000000
     71  H95        0.3374   -1.5244    6.5235    H    1  ucer3        0.000000
     72  C96       -0.4064    0.0402    7.8858    C    1  ucer3        0.000000
     73  H97        0.5265    0.6461    7.8787    H    1  ucer3        0.000000
     74  H98       -1.2583    0.7559    7.8985    H    1  ucer3        0.000000
     75  C99       -0.4304   -0.7758    9.2499    C    1  ucer3        0.000000
     76 H100       -1.3388   -1.4181    9.2573    H    1  ucer3        0.000000
     77 H101        0.4539   -1.4508    9.2640    H    1  ucer3        0.000000
     78 C102       -0.4244    0.0438   10.6081    C    1  ucer3        0.000000
     79 H103        0.4534    0.7276   10.5984    H    1  ucer3        0.000000
     80 H104       -1.3376    0.6789   10.6191    H    1  ucer3        0.000000
     81 C105       -0.3881   -0.7712   11.9667    C    1  ucer3        0.000000
     82 H106       -1.2458   -1.4793   11.9781    H    1  ucer3        0.000000
     83 H107        0.5423   -1.3802   12.0030    H    1  ucer3        0.000000
     84 C108       -0.4389    0.0499   13.3089    C    1  ucer3        0.000000
     85 H109        0.4048    0.7742   13.3175    H    1  ucer3        0.000000
     86 H110       -1.3842    0.6358   13.3408    H    1  ucer3        0.000000
     87 C111       -0.3474   -0.7838   14.6351    C    1  ucer3        0.000000
     88 H112       -1.1685   -1.5351   14.6455    H    1  ucer3        0.000000
     89 H113        0.6158   -1.3417   14.6408    H    1  ucer3        0.000000
     90 C114       -0.4328    0.0250   15.9727    C    1  ucer3        0.000000
     91 H115        0.3750    0.7915   15.9857    H    1  ucer3        0.000000
     92 H116       -1.4072    0.5632   16.0020    H    1  ucer3        0.000000
     93 C117       -0.3088   -0.8275   17.2721    C    1  ucer3        0.000000
     94 H118       -1.1017   -1.6074   17.2549    H    1  ucer3        0.000000
     95 H119        0.6706   -1.3550   17.2497    H    1  ucer3        0.000000
     96 C120       -0.4198   -0.0392   18.6130    C    1  ucer3        0.000000
     97 H121        0.3673    0.7454   18.6567    H    1  ucer3        0.000000
     98 H122       -1.4063    0.4709   18.6714    H    1  ucer3        0.000000
     99 C123       -0.2722   -0.9084   19.8835    C    1  ucer3        0.000000
    100 H124       -1.0601   -1.6953   19.8470    H    1  ucer3        0.000000
    101 H125        0.7320   -1.3893   19.8449    H    1  ucer3        0.000000
    102 C126       -0.4029   -0.1332   21.2980    C    1  ucer3        0.000000
    103 H127       -0.2851   -0.7823   22.2147    H    1  ucer3        0.000000
    104 H128        0.3683    0.6763   21.4416    H    1  ucer3        0.000000
    105 C129       -0.6029   -0.3332   23.2980    C    1  ucer3        0.000000
    106 H130       -0.9493   -1.2492   23.5006    H    1  ucer3        0.000000
    107 H131        0.2900   -0.2032   23.7291    H    1  ucer3        0.000000
    108 H132       -1.2461    0.3561   23.6314    H    1  ucer3        0.000000
@<TRIPOS>BOND
    1     1     3  1
    2     1    51  1
    3     1     2  1
    4     3     4  2
    5     3     5  1
    6     5     8  1
    7     5     6  1
    8     5     7  1
    9     8    10  1
   10     8    11  1
   11     8     9  1
   12    11    14  1
   13    11    12  1
   14    11    13  1
   15    14    16  1
   16    14    15  1
   17    14    17  1
   18    17    19  1
   19    17    18  1
   20    17    20  1
   21    20    21  1
   22    20    23  1
   23    20    22  1
   24    23    26  1
   25    23    25  1
   26    23    24  1
   27    26    28  1
   28    26    29  1
   29    26    27  1
   30    29    30  1
   31    29    31  1
   32    29    32  1
   33    32    35  1
   34    32    33  1
   35    32    34  1
   36    35    37  1
   37    35    36  1
   38    35    38  1
   39    38    39  1
   40    38    40  1
   41    38    41  1
   42    41    43  1
   43    41    44  1
   44    41    42  1
   45    44    47  1
   46    44    45  1
   47    44    46  1
   48    47    48  1
   49    47    49  1
   50    47    50  1
   51    51    52  1
   52    51    58  1
   53    51    53  1
   54    53    55  1
   55    53    54  1
   56    53    56  1
   57    56    57  1
   58    58    62  1
   59    58    59  1
   60    58    60  1
   61    60    61  1
   62    62    64  1
   63    62    63  1
   64    62    66  1
   65    64    65  1
   66    66    69  1
   67    66    68  1
   68    66    67  1
   69    69    71  1
   70    69    70  1
   71    69    72  1
   72    72    75  1
   73    72    73  1
   74    72    74  1
   75    75    78  1
   76    75    77  1
   77    75    76  1
   78    78    81  1
   79    78    79  1
   80    78    80  1
   81    81    82  1
   82    81    84  1
   83    81    83  1
   84    84    87  1
   85    84    85  1
   86    84    86  1
   87    87    90  1
   88    87    88  1
   89    87    89  1
   90    90    92  1
   91    90    93  1
   92    90    91  1
   93    93    95  1
   94    93    94  1
   95    93    96  1
   96    96    97  1
   97    96    98  1
   98    96    99  1
   99    99   101  1
  100    99   100  1
  101    99   102  1
  102   102   103  1
  103   102   104  1
  104   102   105  1
  105   105   106  1
  106   105   107  1
  107   105   108  1

@<TRIPOS>SUBSTRUCTURE
1 ****        1 TEMP                        0 ****  **** 0 ROOT

#generated by VMD
