@<TRIPOS>MOLECULE
generated by VMD
   58   57    1    0    0
SMALL
NO_CHARGES
****
Energy = 0

@<TRIPOS>ATOM
      1  N1        -2.6873   -0.5886   -0.4769  NH1    1  sphin        0.000000
      2  H2        -2.9770   -1.0875    0.3349  HN1    1  sphin        0.000000
      3  H3        -2.9809   -0.8900   -1.3841  HN1    1  sphin        0.000000
      4  C4        -1.8485    0.5634   -0.3448 CTL1    1  sphin        0.000000
      5  H5        -2.0224    1.2894   -1.1686 HAL1    1  sphin        0.000000
      6  C6        -2.1583    1.2943    0.9710 CTL2    1  sphin        0.000000
      7  H7        -1.9211    0.6008    1.8066 HAL2    1  sphin        0.000000
      8  H8        -1.4790    2.1657    1.0894 HAL2    1  sphin        0.000000
      9  O9        -3.5100    1.7214    1.0151  OHL    1  sphin        0.000000
     10  H10       -3.6841    2.1345    1.8636  HOL    1  sphin        0.000000
     11  C11       -0.4146    0.1204   -0.3446 CTL1    1  sphin        0.000000
     12  H12       -0.3525   -0.9838   -0.4517 HAL1    1  sphin        0.000000
     13  O13        0.3072    0.5413    0.8027  OHL    1  sphin        0.000000
     14  H14        1.2219    0.2527    0.7534  HOL    1  sphin        0.000000
     15  C15        0.2894    0.6619   -1.5542 CEL1    1  sphin        0.000000
     16  H16        1.3955    0.7605   -1.2956 HEL1    1  sphin        0.000000
     17  C17        0.2039    0.0754   -2.7545 CEL1    1  sphin        0.000000
     18  H18        1.1063   -0.6170   -2.8316 HEL1    1  sphin        0.000000
     19  C19        0.1669    0.8498   -4.0416 CTL2    1  sphin        0.000000
     20  H20       -0.7357    1.4966   -4.0824 HAL2    1  sphin        0.000000
     21  H21        1.0505    1.5143   -4.1541 HAL2    1  sphin        0.000000
     22  C22        0.1308   -0.0941   -5.2460 CTL2    1  sphin        0.000000
     23  H23        1.0557   -0.7079   -5.2978 HAL2    1  sphin        0.000000
     24  H24       -0.7838   -0.7247   -5.2264 HAL2    1  sphin        0.000000
     25  C25        0.0728    0.7910   -6.4908 CTL2    1  sphin        0.000000
     26  H26       -0.8579    1.3941   -6.5748 HAL2    1  sphin        0.000000
     27  H27        0.9797    1.4122   -6.6480 HAL2    1  sphin        0.000000
     28  C28        0.7732   -0.1142   -7.5062 CTL2    1  sphin        0.000000
     29  H29        0.7789   -1.2225   -7.5681 HAL2    1  sphin        0.000000
     30  H30       -0.2973   -0.4065   -7.4805 HAL2    1  sphin        0.000000
     31  C31       -0.0503    0.7395   -8.4726 CTL2    1  sphin        0.000000
     32  H32       -0.9706    1.3401   -8.6364 HAL2    1  sphin        0.000000
     33  H33        0.8407    1.3576   -8.7084 HAL2    1  sphin        0.000000
     34  C34       -0.0879   -0.2369   -9.6487 CTL2    1  sphin        0.000000
     35  H35        0.8117   -0.8573   -9.8490 HAL2    1  sphin        0.000000
     36  H36       -0.9889   -0.8771   -9.7786 HAL2    1  sphin        0.000000
     37  C37       -0.1464    0.6035  -10.9271 CTL2    1  sphin        0.000000
     38  H38       -1.0545    1.2112  -11.1241 HAL2    1  sphin        0.000000
     39  H39        0.7316    1.2288  -11.1959 HAL2    1  sphin        0.000000
     40  C40       -0.1853   -0.3380  -12.1332 CTL2    1  sphin        0.000000
     41  H41        0.7032   -0.9730  -12.3368 HAL2    1  sphin        0.000000
     42  H42       -1.0735   -0.9889  -12.2644 HAL2    1  sphin        0.000000
     43  C43       -0.2435    0.4603  -13.4390 CTL2    1  sphin        0.000000
     44  H44       -1.1461    1.0864  -13.6143 HAL2    1  sphin        0.000000
     45  H45        0.6291    1.1043  -13.6835 HAL2    1  sphin        0.000000
     46  C46       -0.2831   -0.4446  -14.6692 CTL2    1  sphin        0.000000
     47  H47        0.6062   -1.0931  -14.8264 HAL2    1  sphin        0.000000
     48  H48       -1.1698   -1.1089  -14.7580 HAL2    1  sphin        0.000000
     49  C49       -0.3421    0.3290  -15.9853 CTL2    1  sphin        0.000000
     50  H50       -1.2461    0.9666  -16.1037 HAL2    1  sphin        0.000000
     51  H51        0.5340    0.9840  -16.1742 HAL2    1  sphin        0.000000
     52  C52       -0.3838   -0.5628  -17.2287 CTL2    1  sphin        0.000000
     53  H53        0.5134   -1.2151  -17.3083 HAL2    1  sphin        0.000000
     54  H54       -1.2671   -1.2367  -17.2350 HAL2    1  sphin        0.000000
     55  C55       -0.4441    0.1963  -18.5546 CTL3    1  sphin        0.000000
     56  H56       -0.4751   -0.4491  -19.4570 HAL3    1  sphin        0.000000
     57  H57       -1.3437    0.8461  -18.6034 HAL3    1  sphin        0.000000
     58  H58        0.4395    0.8654  -18.6588 HAL3    1  sphin        0.000000
@<TRIPOS>BOND
    1     1     3  1
    2     1     4  1
    3     1     2  1
    4     4     5  1
    5     4    11  1
    6     4     6  1
    7     6     8  1
    8     6     7  1
    9     6     9  1
   10     9    10  1
   11    11    15  1
   12    11    12  1
   13    11    13  1
   14    13    14  1
   15    15    17  2
   16    15    16  1
   17    17    19  1
   18    17    18  1
   19    19    22  1
   20    19    21  1
   21    19    20  1
   22    22    24  1
   23    22    23  1
   24    22    25  1
   25    25    28  1
   26    25    26  1
   27    25    27  1
   28    28    31  1
   29    28    30  1
   30    28    29  1
   31    31    34  1
   32    31    32  1
   33    31    33  1
   34    34    35  1
   35    34    37  1
   36    34    36  1
   37    37    40  1
   38    37    38  1
   39    37    39  1
   40    40    43  1
   41    40    41  1
   42    40    42  1
   43    43    45  1
   44    43    46  1
   45    43    44  1
   46    46    48  1
   47    46    47  1
   48    46    49  1
   49    49    50  1
   50    49    52  1
   51    49    51  1
   52    52    54  1
   53    52    53  1
   54    52    55  1
   55    55    56  1
   56    55    57  1
   57    55    58  1

@<TRIPOS>SUBSTRUCTURE
1 ****        1 TEMP                        0 ****  **** 0 ROOT
