@<TRIPOS>MOLECULE
ucer8
  130  129    1    0    0
SMALL
NO_CHARGES
****
Energy = 0

@<TRIPOS>ATOM
      1  N1        -2.6515   -0.4988   -0.1057    NH1    1  ucer8        0.000000
      2  H2        -2.9412   -0.9977    0.7061    HN1    1  ucer8        0.000000
      3  C3        -3.0462   -0.9039   -1.3251    CLN    1  ucer8        0.000000
      4  O4        -3.7609   -1.8877   -1.4249    OBL    1  ucer8        0.000000
      5  C5        -2.5930   -0.1272   -2.5536    CTL2    1  ucer8        0.000000
      6  H6        -1.4561   -0.1288   -2.6180    HAL2    1  ucer8        0.000000
      7  H7        -2.9652    0.9166   -2.4750    HAL2    1  ucer8        0.000000
      8  C8        -3.1869   -0.8066   -3.7896    CTL2    1  ucer8        0.000000
      9  H9        -2.8236   -1.8561   -3.8511    HAL2    1  ucer8        0.000000
     10  H10       -4.2967   -0.7973   -3.7252    HAL2    1  ucer8        0.000000
     11  C11       -2.7381   -0.0348   -5.0292    CTL2    1  ucer8        0.000000
     12  H12       -3.1011    1.0156   -4.9646    HAL2    1  ucer8        0.000000
     13  H13       -1.6280   -0.0432   -5.0906    HAL2    1  ucer8        0.000000
     14  C14       -3.3250   -0.7024   -6.2759    CTL2    1  ucer8        0.000000
     15  H15       -2.9615   -1.7498   -6.3393    HAL2    1  ucer8        0.000000
     16  H16       -4.4330   -0.6933   -6.2145    HAL2    1  ucer8        0.000000
     17  C17       -2.8770    0.0716   -7.5173    CTL2    1  ucer8        0.000000
     18  H18       -3.2388    1.1168   -7.4541    HAL2    1  ucer8        0.000000
     19  H19       -1.7683    0.0614   -7.5808    HAL2    1  ucer8        0.000000
     20  C20       -3.4621   -0.5973   -8.7651    CTL2    1  ucer8        0.000000
     21  H21       -3.1007   -1.6444   -8.8295    HAL2    1  ucer8        0.000000
     22  H22       -4.5720   -0.5879   -8.7027    HAL2    1  ucer8        0.000000
     23  C23       -3.0155    0.1739  -10.0077    CTL2    1  ucer8        0.000000
     24  H24       -3.3779    1.2222   -9.9442    HAL2    1  ucer8        0.000000
     25  H25       -1.9055    0.1656  -10.0701    HAL2    1  ucer8        0.000000
     26  C26       -3.6015   -0.4938  -11.2544    CTL2    1  ucer8        0.000000
     27  H27       -3.2379   -1.5403  -11.3178    HAL2    1  ucer8        0.000000
     28  H28       -4.7103   -0.4836  -11.1930    HAL2    1  ucer8        0.000000
     29  C29       -3.1536    0.2792  -12.4969    CTL2    1  ucer8        0.000000
     30  H30       -3.5153    1.3254  -12.4336    HAL2    1  ucer8        0.000000
     31  H31       -2.0447    0.2700  -12.5583    HAL2    1  ucer8        0.000000
     32  C32       -3.7396   -0.3886  -13.7436    CTL2    1  ucer8        0.000000
     33  H33       -3.3772   -1.4368  -13.8070    HAL2    1  ucer8        0.000000
     34  H34       -4.8475   -0.3795  -13.6813    HAL2    1  ucer8        0.000000
     35  C35       -3.2911    0.3825  -14.9873    CTL2    1  ucer8        0.000000
     36  H36       -3.6533    1.4317  -14.9228    HAL2    1  ucer8        0.000000
     37  H37       -2.1808    0.3750  -15.0476    HAL2    1  ucer8        0.000000
     38  C38       -3.8778   -0.2843  -16.2330    CTL2    1  ucer8        0.000000
     39  H39       -3.5155   -1.3325  -16.2973    HAL2    1  ucer8        0.000000
     40  H40       -4.9868   -0.2761  -16.1705    HAL2    1  ucer8        0.000000
     41  C41       -3.4302    0.4868  -17.4755    CTL2    1  ucer8        0.000000
     42  H42       -3.7914    1.5359  -17.4110    HAL2    1  ucer8        0.000000
     43  H43       -2.3202    0.4785  -17.5380    HAL2    1  ucer8        0.000000
     44  C44       -4.0150   -0.1802  -18.7213    CTL2    1  ucer8        0.000000
     45  H45       -3.6537   -1.2282  -18.7857    HAL2    1  ucer8        0.000000
     46  H46       -5.1250   -0.1707  -18.6607    HAL2    1  ucer8        0.000000
     47  C47       -3.5683    0.5921  -19.9648    CTL2    1  ucer8        0.000000
     48  H48       -3.9307    1.6404  -19.9014    HAL2    1  ucer8        0.000000
     49  H49       -2.4592    0.5838  -20.0250    HAL2    1  ucer8        0.000000
     50  C50       -4.1552   -0.0756  -21.2104    CTL2    1  ucer8        0.000000
     51  H51       -3.7929   -1.1238  -21.2759    HAL2    1  ucer8        0.000000
     52  H52       -5.2643   -0.0673  -21.1490    HAL2    1  ucer8        0.000000
     53  C53       -3.7090    0.6937  -22.4550    CTL2    1  ucer8        0.000000
     54  H54       -4.0682    1.7415  -22.3888    HAL2    1  ucer8        0.000000
     55  H55       -2.5998    0.6854  -22.5143    HAL2    1  ucer8        0.000000
     56  C56       -4.2975    0.0200  -23.6980    CTL2    1  ucer8        0.000000
     57  H57       -5.4042    0.0174  -23.6052    HAL2    1  ucer8        0.000000
     58  H58       -3.9459   -1.0314  -23.7299    HAL2    1  ucer8        0.000000
     59  C59       -3.8731    0.7631  -24.9671    CTL2    1  ucer8        0.000000
     60  H60       -2.7645    0.7738  -25.0434    HAL2    1  ucer8        0.000000
     61  H61       -4.2176    1.8159  -24.9193    HAL2    1  ucer8        0.000000
     62  C62       -4.4566    0.0991  -26.2146    CTL2    1  ucer8        0.000000
     63  H63       -5.5646    0.0622  -26.1409    HAL2    1  ucer8        0.000000
     64  H64       -4.0771   -0.9425  -26.2945    HAL2    1  ucer8        0.000000
     65  C65       -4.0544    0.8884  -27.4620    CTL2    1  ucer8        0.000000
     66  H66       -2.9461    0.9226  -27.5430    HAL2    1  ucer8        0.000000
     67  H67       -4.4252    1.9327  -27.3783    HAL2    1  ucer8        0.000000
     68  C68       -4.6408    0.2362  -28.7160    CTL2    1  ucer8        0.000000
     69  H69       -5.7483    0.2045  -28.6257    HAL2    1  ucer8        0.000000
     70  H70       -4.2804   -0.8107  -28.7822    HAL2    1  ucer8        0.000000
     71  C71       -4.2406    1.0129  -29.9699    CTL3    1  ucer8        0.000000
     72  H72       -4.6133    2.0562  -29.9002    HAL3    1  ucer8        0.000000
     73  H73       -4.6879    0.5177  -30.8589    HAL3    1  ucer8        0.000000
     74  H74       -3.1315    1.0205  -30.0665    HAL3    1  ucer8        0.000000 
     75  C75       -1.8127    0.6532    0.0264    CTL1    1  ucer8        0.000000
     76  H76       -1.9866    1.3792   -0.7974    HAL1    1  ucer8        0.000000
     77  C77       -2.1225    1.3841    1.3422    CTL2    1  ucer8        0.000000
     78  H78       -1.8853    0.6906    2.1778    HAL2    1  ucer8        0.000000
     79  H79       -1.4432    2.2555    1.4606    HAL2    1  ucer8        0.000000
     80  O80       -3.4742    1.8112    1.3863    OHL    1  ucer8        0.000000
     81  H81       -3.6483    2.2243    2.2348    HOL    1  ucer8        0.000000
     82  C82       -0.3788    0.2102    0.0266    CTL1    1  ucer8        0.000000
     83  H83       -0.3167   -0.8940   -0.0805    HAL1    1  ucer8        0.000000
     84  O84        0.3430    0.6311    1.1739    OHL    1  ucer8        0.000000
     85  H85        1.2577    0.3425    1.1246    HOL    1  ucer8        0.000000
     86  C86        0.3252    0.7517   -1.1830    CEL1    1  ucer8        0.000000
     87  H87        1.4313    0.8503   -0.9244    HEL1    1  ucer8        0.000000
     88  C88        0.2397    0.1652   -2.3833    CEL1    1  ucer8        0.000000
     89  H89        1.1421   -0.5272   -2.4604    HEL1    1  ucer8        0.000000
     90  C90        0.2027    0.9396   -3.6704    CTL1    1  ucer8        0.000000
     91  H91       -0.6999    1.5864   -3.7112    HAL1    1  ucer8        0.000000
     92  O92        1.0863    1.6041   -3.7829    OHL    1  ucer8        0.000000
     93  C93        0.1666   -0.0043   -4.8748    CTL2    1  ucer8        0.000000
     94  H94        1.0915   -0.6181   -4.9266    HAL2    1  ucer8        0.000000
     95  H95       -0.7480   -0.6349   -4.8552    HAL2    1  ucer8        0.000000
     96  C96        0.1086    0.8808   -6.1196    CTL2    1  ucer8        0.000000
     97  H97       -0.8221    1.4839   -6.2036    HAL2    1  ucer8        0.000000
     98  H98        1.0155    1.5020   -6.2768    HAL2    1  ucer8        0.000000
     99  C99        0.9861   -0.2534   -7.3918    CTL2    1  ucer8        0.000000
    100 H100        0.9918   -1.3617   -7.4537    HAL2    1  ucer8        0.000000
    101 H101       -0.0844   -0.5457   -7.3661    HAL2    1  ucer8        0.000000
    102 C102        0.0150    0.7534   -8.5316    CTL2    1  ucer8        0.000000
    103 H103       -0.9053    1.3540   -8.6954    HAL2    1  ucer8        0.000000
    104 H104        0.9060    1.3715   -8.7674    HAL2    1  ucer8        0.000000
    105 C105       -0.0226   -0.2230   -9.7077    CTL2    1  ucer8        0.000000
    106 H106        0.8770   -0.8434   -9.9080    HAL2    1  ucer8        0.000000
    107 H107       -0.9236   -0.8632   -9.8376    HAL2    1  ucer8        0.000000
    108 C108       -0.0811    0.6174  -10.9861    CTL2    1  ucer8        0.000000
    109 H109       -0.9892    1.2251  -11.1831    HAL2    1  ucer8        0.000000
    110 H110        0.7969    1.2427  -11.2549    HAL2    1  ucer8        0.000000
    111 C111       -0.1200   -0.3241  -12.1922    CTL2    1  ucer8        0.000000
    112 H112        0.7685   -0.9591  -12.3958    HAL2    1  ucer8        0.000000
    113 H113       -1.0082   -0.9750  -12.3234    HAL2    1  ucer8        0.000000
    114 C114       -0.1782    0.4742  -13.4980    CTL2    1  ucer8        0.000000
    115 H115       -1.0808    1.1003  -13.6733    HAL2    1  ucer8        0.000000
    116 H116        0.6944    1.1182  -13.7425    HAL2    1  ucer8        0.000000
    117 C117       -0.2178   -0.4307  -14.7282    CTL2    1  ucer8        0.000000
    118 H118        0.6715   -1.0792  -14.8854    HAL2    1  ucer8        0.000000
    119 H119       -1.1045   -1.0950  -14.8170    HAL2    1  ucer8        0.000000
    120 C120       -0.2768    0.3429  -16.0443    CTL2    1  ucer8        0.000000
    121 H121       -1.1808    0.9805  -16.1628    HAL2    1  ucer8        0.000000
    122 H122        0.5993    0.9979  -16.2332    HAL2    1  ucer8        0.000000
    123 C123       -0.3185   -0.5489  -17.2878    CTL2    1  ucer8        0.000000
    124 H124        0.5787   -1.2012  -17.3673    HAL2    1  ucer8        0.000000
    125 H125       -1.2018   -1.2228  -17.2941    HAL2    1  ucer8        0.000000
    126 C126       -0.3788    0.2102  -18.6136    CTL3    1  ucer8        0.000000
    127 H127       -0.4098   -0.4352  -19.5161    HAL3    1  ucer8        0.000000
    128 H128       -1.2784    0.8600  -18.6624    HAL3    1  ucer8        0.000000
    129 H129        0.5048    0.8793  -18.7178    HAL3    1  ucer8        0.000000
    130 H130        1.5988    1.6125   -2.9243    HOL    1  ucer8        0.000000
@<TRIPOS>BOND
    1     1     3  1
    2     1    75  1
    3     1     2  1
    4     3     4  2
    5     3     5  1
    6     5     7  1
    7     5     6  1
    8     5     8  1
    9     8    10  1
   10     8    11  1
   11     8     9  1
   12    11    14  1
   13    11    12  1
   14    11    13  1
   15    14    15  1
   16    14    16  1
   17    14    17  1
   18    17    18  1
   19    17    20  1
   20    17    19  1
   21    20    21  1
   22    20    22  1
   23    20    23  1
   24    23    26  1
   25    23    25  1
   26    23    24  1
   27    26    27  1
   28    26    28  1
   29    26    29  1
   30    29    30  1
   31    29    31  1
   32    29    32  1
   33    32    35  1
   34    32    33  1
   35    32    34  1
   36    35    38  1
   37    35    37  1
   38    35    36  1
   39    38    39  1
   40    38    40  1
   41    38    41  1
   42    41    43  1
   43    41    44  1
   44    41    42  1
   45    44    46  1
   46    44    45  1
   47    44    47  1
   48    47    50  1
   49    47    49  1
   50    47    48  1
   51    50    53  1
   52    50    52  1
   53    50    51  1
   54    53    56  1
   55    53    54  1
   56    53    55  1
   57    56    57  1
   58    56    58  1
   59    56    59  1
   60    59    60  1
   61    59    62  1
   62    59    61  1
   63    62    63  1
   64    62    64  1
   65    62    65  1
   66    65    66  1
   67    65    68  1
   68    65    67  1
   69    68    69  1
   70    68    71  1
   71    68    70  1
   72    71    74  1
   73    71    72  1
   74    71    73  1
   75    75    76  1
   76    75    82  1
   77    75    77  1
   78    77    79  1
   79    77    78  1
   80    77    80  1
   81    80    81  1
   82    82    86  1
   83    82    83  1
   84    82    84  1
   85    84    85  1
   86    86    88  2
   87    86    87  1
   88    88    90  1
   89    88    89  1
   90    90    93  1
   91    90    92  1
   92    90    91  1
   93    92   130  1
   94    93    95  1
   95    93    94  1
   96    93    96  1
   97    96    99  1
   98    96    97  1
   99    96    98  1
  100    99   102  1
  101    99   101  1
  102    99   100  1
  103   102   105  1
  104   102   103  1
  105   102   104  1
  106   105   106  1
  107   105   108  1
  108   105   107  1
  109   108   111  1
  110   108   109  1
  111   108   110  1
  112   111   114  1
  113   111   112  1
  114   111   113  1
  115   114   116  1
  116   114   117  1
  117   114   115  1
  118   117   119  1
  119   117   118  1
  120   117   120  1
  121   120   121  1
  122   120   123  1
  123   120   122  1
  124   123   125  1
  125   123   124  1
  126   123   126  1
  127   126   127  1
  128   126   128  1
  129   126   129  1

@<TRIPOS>SUBSTRUCTURE
1 ****        1 TEMP                        0 ****  **** 0 ROOT

#generated by VMD
