@<TRIPOS>MOLECULE
cernp
  108  107    1    0    0
SMALL
NO_CHARGES
****
Energy = 0

@<TRIPOS>ATOM
      1  N1        -0.7588   -0.3938   -1.7663    NH1     1  cernp        0.000000
      2  H2        -1.7590   -0.2626   -1.7905    HN1     1  cernp        0.000000
      3  C3        -0.0811   -0.5502   -2.9784    CLN     1  cernp        0.000000
      4  O4         1.1292   -0.7394   -3.0399    OBL     1  cernp        0.000000
      5  C5        -0.8775   -0.3127   -4.3214    CTL2    1  cernp        0.000000
      6  H6        -1.0510    0.7770   -4.4233    HAL2    1  cernp        0.000000
      7  H7        -1.8713   -0.7949   -4.2305    HAL2    1  cernp        0.000000
      8  C8        -0.2087   -0.8030   -5.7176    CTL2    1  cernp        0.000000
      9  H9         0.8667   -0.5128   -5.6980    HAL2    1  cernp        0.000000
     10  H10       -0.2358   -1.9158   -5.7303    HAL2    1  cernp        0.000000
     11  C11       -0.7970   -0.2632   -7.1183    CTL2    1  cernp        0.000000
     12  H12       -1.9021   -0.3869   -7.0969    HAL2    1  cernp        0.000000
     13  H13       -0.5918    0.8299   -7.1481    HAL2    1  cernp        0.000000
     14  C14       -0.2833   -0.8895   -8.5129    CTL2    1  cernp        0.000000
     15  H15        0.8267   -0.9469   -8.4702    HAL2    1  cernp        0.000000
     16  H16       -0.6599   -1.9352   -8.5557    HAL2    1  cernp        0.000000
     17  C17       -0.6578   -0.1717   -9.9066    CTL2    1  cernp        0.000000
     18  H18       -1.7468    0.0528   -9.8931    HAL2    1  cernp        0.000000
     19  H19       -0.1247    0.8045   -9.9199    HAL2    1  cernp        0.000000
     20  C20       -0.3542   -0.9121  -11.3050    CTL2    1  cernp        0.000000
     21  H21        0.6924   -1.2876  -11.2732    HAL2    1  cernp        0.000000
     22  H22       -1.0178   -1.8038  -11.3529    HAL2    1  cernp        0.000000
     23  C23       -0.5158   -0.1091  -12.6917    CTL2    1  cernp        0.000000
     24  H24       -1.5051    0.3994  -12.6794    HAL2    1  cernp        0.000000
     25  H25        0.2602    0.6882  -12.7001    HAL2    1  cernp        0.000000
     26  C26       -0.4160   -0.8960  -14.0910    CTL2    1  cernp        0.000000
     27  H27        0.5052   -1.5188  -14.0701    HAL2    1  cernp        0.000000
     28  H28       -1.2807   -1.5943  -14.1389    HAL2    1  cernp        0.000000
     29  C29       -0.3855   -0.0688  -15.4664    CTL2    1  cernp        0.000000
     30  H30       -1.2341    0.6498  -15.4567    HAL2    1  cernp        0.000000
     31  H31        0.5509    0.5314  -15.4733    HTL2    1  cernp        0.000000
     32  C32       -0.4622   -0.8567  -16.8593    CAL2    1  cernp        0.000000
     33  H33        0.3117   -1.6554  -16.8503    HAL2    1  cernp        0.000000
     34  H34       -1.4525   -1.3612  -16.9052    HAL2    1  cernp        0.000000
     35  C35       -0.2736   -0.0453  -18.2252    CTL2    1  cernp        0.000000
     36  H36       -0.9737    0.8192  -18.2168    HAL2    1  cernp        0.000000
     37  H37        0.7588    0.3700  -18.2310    HAL2    1  cernp        0.000000
     38  C38       -0.4927   -0.8089  -19.6104    CTL2    1  cernp        0.000000
     39  H39        0.1385   -1.7250  -19.6047    HAL2    1  cernp        0.000000
     40  H40       -1.5538   -1.1419  -19.6467    HAL2    1  cernp        0.000000
     41  C41       -0.1821   -0.0321  -20.9667    CTL2    1  cernp        0.000000
     42  H42       -0.7485    0.9250  -20.9541    HAL2    1  cernp        0.000000
     43  H43        0.9000    0.2262  -20.9662    HAL2    1  cernp        0.000000
     44  C44       -0.5091   -0.7582  -22.3437    CTL2    1  cernp        0.000000
     45  H45       -0.0019   -1.7480  -22.3457    HAL2    1  cernp        0.000000
     46  H46       -1.6043   -0.9505  -22.3757    HAL2    1  cernp        0.000000
     47  C47       -0.1117   -0.0255  -23.6956    CTL3    1  cernp        0.000000
     48  H48       -0.5740    1.0056  -23.6958    HAL3    1  cernp        0.000000
     49  H49        1.0101    0.1104  -23.7070    HAL3    1  cernp        0.000000
     50  H50       -0.4054   -0.5239  -24.6662    HAL3    1  cernp        0.000000
     51  C51       -0.1293   -0.2025   -0.3784    CTL1    1  cernp        0.000000
     52  H52        0.8516   -0.7327   -0.3904    HAL1    1  cernp        0.000000
     53  C53        0.1582    1.3324   -0.2013    CTL2    1  cernp        0.000000
     54  H54        0.3133    1.8136   -1.1942    HAL2    1  cernp        0.000000
     55  H55       -0.7064    1.8414    0.2813    HAL2    1  cernp        0.000000
     56  O56        1.3309    1.5404    0.5855    OHL     1  cernp        0.000000
     57  H57        1.4940    2.4886    0.6166    HOL     1  cernp        0.000000
     58  C58       -1.0118   -0.8981    0.7884    CTL1    1  cernp        0.000000
     59  H59       -0.6569   -1.9461    0.9144    HAL1    1  cernp        0.000000
     60  O60       -2.4014   -0.9154    0.4679    OHL     1  cernp        0.000000
     61  H61       -2.5199   -1.6588   -0.1304    HOL     1  cernp        0.000000
     62  C62       -0.8638   -0.2174    2.1964    CTL1    1  cernp        0.000000
     63  H63       -0.8146    0.1438    3.1276    HAL1    1  cernp        0.000000   
     64  O64       -1.1258    0.8500    2.2257    OHL     1  cernp        0.000000
     65  H65       -0.7033    1.3105    1.4450    HOL     1  cernp        0.000000
     66  C66       -0.5368   -0.8072    3.3986    CTL2    1  cernp        0.000000
     67  H67       -0.3796   -1.0781    4.3483    HAL2    1  cernp        0.000000
     68  H68       -0.3448   -1.8908    3.4501    HAL2    1  cernp        0.000000
     69  C69       -0.4902   -0.1350    4.7889    CTL2    1  cernp        0.000000
     70  H70        0.4606    0.4367    4.8724    HAL2    1  cernp        0.000000
     71  H71       -1.3084    0.6168    4.8523    HAL2    1  cernp        0.000000
     72  C72       -0.6075   -0.9707    6.1387    CTL2    1  cernp        0.000000
     73  H73       -1.5718   -1.5248    6.1227    HAL2    1  cernp        0.000000
     74  H74        0.2081   -1.7269    6.1451    HAL2    1  cernp        0.000000
     75  C75       -0.5357   -0.1623    7.5074    CTL2    1  cernp        0.000000
     76  H76        0.3972    0.4436    7.5003    HAL2    1  cernp        0.000000
     77  H77       -1.3876    0.5534    7.5201    HAL2    1  cernp        0.000000
     78  C78       -0.5597   -0.9783    8.8715    CTL2    1  cernp        0.000000
     79  H79       -1.4681   -1.6206    8.8789    HAL2    1  cernp        0.000000
     80  H80        0.3246   -1.6533    8.8856    HAL2    1  cernp        0.000000
     81  C81       -0.5537   -0.1587   10.2297    CTL2    1  cernp        0.000000
     82  H82        0.3241    0.5251   10.2200    HAL2    1  cernp        0.000000
     83  H83       -1.4669    0.4764   10.2407    HAL2    1  cernp        0.000000
     84  C84       -0.5174   -0.9737   11.5883    CTL2    1  cernp        0.000000
     85  H85       -1.3751   -1.6818   11.5997    HAL2    1  cernp        0.000000
     86  H86        0.4130   -1.5827   11.6246    HAL2    1  cernp        0.000000
     87  C87       -0.5682   -0.1526   12.9305    CTL2    1  cernp        0.000000
     88  H88        0.2755    0.5717   12.9391    HAL2    1  cernp        0.000000
     89  H89       -1.5135    0.4333   12.9624    HAL2    1  cernp        0.000000
     90  C90       -0.4767   -0.9863   14.2567    CTL2    1  cernp        0.000000
     91  H91       -1.2978   -1.7376   14.2671    HAL2    1  cernp        0.000000
     92  H92        0.4865   -1.5442   14.2624    HAL2    1  cernp        0.000000
     93  C93       -0.5621   -0.1775   15.5943    CTL2    1  cernp        0.000000
     94  H94        0.2457    0.5890   15.6073    HAL2    1  cernp        0.000000
     95  H95       -1.5365    0.3607   15.6236    HAL2    1  cernp        0.000000
     96  C96       -0.4381   -1.0300   16.8937    CTL2    1  cernp        0.000000
     97  H97       -1.2310   -1.8099   16.8765    HAL2    1  cernp        0.000000
     98  H98        0.5413   -1.5575   16.8713    HAL2    1  cernp        0.000000
     99  C99       -0.5491   -0.2417   18.2346    CTL2    1  cernp        0.000000
    100  H100       0.2380    0.5429   18.2783    HAL2    1  cernp        0.000000
    101  H101      -1.5356    0.2684   18.2930    HAL2    1  cernp        0.000000
    102  C102      -0.4015   -1.1109   19.5051    CTL2    1  cernp        0.000000
    103  H103      -1.1894   -1.8978   19.4686    HAL2    1  cernp        0.000000
    104  H104       0.6027   -1.5918   19.4665    HAL2    1  cernp        0.000000
    105  C105      -0.5322   -0.3357   20.9196    CTL3    1  cernp        0.000000
    106  H106      -0.4144   -0.9848   21.8363    HAL3    1  cernp        0.000000
    107  H107       0.2390    0.4738   21.0632    HAL3    1  cernp        0.000000
    108  H108      -1.5322    0.1619   21.0706    HAL3    1  cernp        0.000000
@<TRIPOS>BOND
     1     1     3  1
     2     1    51  1
     3     1     2  1
     4     3     4  2
     5     3     5  1
     6     5     8  1
     7     5     7  1
     8     5     6  1
     9     8    10  1
    10     8    11  1
    11     8     9  1
    12    11    14  1
    13    11    12  1
    14    11    13  1
    15    14    16  1
    16    14    15  1
    17    14    17  1
    18    17    19  1
    19    17    18  1
    20    17    20  1
    21    20    21  1
    22    20    23  1
    23    20    22  1
    24    23    26  1
    25    23    25  1
    26    23    24  1
    27    26    28  1
    28    26    29  1
    29    26    27  1
    30    29    30  1
    31    29    31  1
    32    29    32  1
    33    32    35  1
    34    32    33  1
    35    32    34  1
    36    35    37  1
    37    35    36  1
    38    35    38  1
    39    38    39  1
    40    38    40  1
    41    38    41  1
    42    41    43  1
    43    41    44  1
    44    41    42  1
    45    44    47  1
    46    44    45  1
    47    44    46  1
    48    47    48  1
    49    47    49  1
    50    47    50  1
    51    51    52  1
    52    51    58  1
    53    51    53  1
    54    53    55  1
    55    53    54  1
    56    53    56  1
    57    56    57  1
    58    58    62  1
    59    58    59  1
    60    58    60  1
    61    60    61  1
    62    62    64  1
    63    62    63  1
    64    105   106  1
    65    105   107  1
    66    62    66  1
    67    64    65  1
    68    105   108  1
    69    66    69  1
    70    66    68  1
    71    66    67  1
    72    69    71  1
    73    69    70  1
    74    69    72  1
    75    72    75  1
    76    72    73  1
    77    72    74  1
    78    75    78  1
    79    75    77  1
    80    75    76  1
    81    78    81  1
    82    78    79  1
    83    78    80  1
    84    81    82  1
    85    81    84  1
    86    81    83  1
    87    84    87  1
    88    84    85  1
    89    84    86  1
    90    87    90  1
    91    87    88  1
    92    87    89  1
    93    90    92  1
    94    90    93  1
    95    90    91  1
    96    93    95  1
    97    93    94  1
    98    93    96  1
    99    96    97  1
   100    96    98  1
   101    96    99  1
   102    99   101  1
   103    99   100  1
   104    99   102  1
   105   102   103  1
   106   102   104  1
   107   102   105  1
@<TRIPOS>SUBSTRUCTURE
    1 cernp           1 RESIDUE    0 **** ROOT      0

#generated by VMD
